17
C         -2.67973        1.53420        1.35030
C         -1.47030        2.22644        1.23705
C         -0.49126        2.12575        2.24081
C         -0.75134        1.31317        3.36459
C         -1.96348        0.62388        3.47293
C         -2.92618        0.73367        2.46742
H         -3.42598        1.61802        0.57074
H         -3.86266        0.19772        2.55364
H         -1.29527        2.84228        0.36321
H         -0.02779        1.20252        4.16059
H         -2.15589        0.00233        4.33803
C          0.80097        2.89342        2.06030
N          1.73792        2.70056        3.16469
H          0.57333        3.97798        1.95826
H          1.28253        2.54688        1.11990
H          1.34812        3.14974        4.02524
H          2.62983        3.19420        2.93226
